variable 		temperature equal 30000
variable		nepart equal 32
variable		nsteps equal 200000
#END PARAMS

variable		ne_up equal 32/2
variable		ne_down equal 32-16
variable 		V equal 32/(1e+21/1e24)
variable		L equal (32000^(1.0/3.0))/2.0
variable        LCut    equal 15.874010519682*4.0
variable 	LH	equal 15.874010519682*2.0
shell mkdir 	1e+21

units 			real
newton			on
#boundary        p p p
boundary        m m m
processors      1 * *
atom_style		wavepacket
atom_modify map yes

# START INIT SECTION
region          box block -15.874010519682 15.874010519682 -15.874010519682 15.874010519682 -15.874010519682 15.874010519682
create_box      3 box
Created orthogonal box = (-15.874 -15.874 -15.874) to (15.874 15.874 15.874)
create_atoms    1 random 32 24314 box
Created 32 atoms
  Time spent = 0.000262022 secs

mass         	1 0.000544616997098749
set 			type 1 charge 1
  32 settings made for charge
set 			type 1 spin/wpmd 0
  32 settings made for spin/wpmd

mass	     	2 0.000544616997098749
set 			type 2 charge -1
  0 settings made for charge
set     		type 2 spin/wpmd 1
  0 settings made for spin/wpmd
set     		type 2 eradius 1.86
  0 settings made for eradius

mass         	3 0.000544616997098749
set 			type 3 charge -1
  0 settings made for charge
set				type 3 spin/wpmd -1
  0 settings made for spin/wpmd
set				type 3 eradius 1.86
  0 settings made for eradius

group 			ion type 1
32 atoms in group ion
group 			eup type 2
0 atoms in group eup
group 			edown type 3
0 atoms in group edown
group 			electrons type 2 3
0 atoms in group electrons

velocity        ion create 30000 877785 dist gaussian
# END INIT SECTION

set atom 1 x -1
  1 settings made for x
set atom 1 y 0
  1 settings made for y
set atom 1 z 0
  1 settings made for z

set atom 2 x 1
  1 settings made for x
set atom 2 y 0
  1 settings made for y
set atom 2 z 0
  1 settings made for z

#PAIR_STYLE
pair_style wpmd/cut 63.496042078728
pair_coeff 	    * *
#END_PAIR_STYLE

timestep		0.001
comm_modify		vel yes

#FIX_SECTION
fix				w1 all wall/awpmd 10 1.0 10

compute         kinetik all ke
compute         ke_ion ion ke
compute         ke_eup eup ke
compute         ke_edown edown ke

#compute         energies all pair eff/cut
compute         energies all pair wpmd/cut

variable        ebord equal 0 #f_w1[1]
variable		wall_press equal 0 #f_w1[2]
variable        int_ii equal c_energies[1]
variable        int_ei equal c_energies[2]
variable        int_ee equal c_energies[3]
variable        int_ke equal c_energies[4]
variable        dft_xc equal 1 #c_energies[5]
variable        dft_ke equal 1 #c_energies[6]

variable		eng_total equal etotal
variable 		etotal_ev equal v_eng_total/627.509474*27.211386

fix             thermalization all nvt temp 30000 30000 $(100.0*dt)
fix             thermalization all nvt temp 30000 30000 0.10000000000000000555

variable        accept equal 1
variable        mc_energy equal 1
variable		mc_step_energy	equal 1
variable        mc_steppe_id equal  1

compute			all_temp all temp
compute			t_ion ion temp
compute			t_elup  eup temp
compute			t_eldown  edown temp

compute			pos_x all property/atom x

variable		distance equal (c_pos_x[2]-c_pos_x[1])/63.496042078728

fix 			ave all ave/time 1 1 1 v_distance v_eng_total c_energies c_kinetik c_ke_ion c_ke_eup c_ke_edown                 c_all_temp c_t_ion c_t_elup c_t_eldown                 v_int_ii v_int_ei v_int_ee v_int_ke v_ebord                 v_dft_xc v_dft_ke 				v_wall_press                 file ./1e+21/wpmd_thermo_ave.dat off 1

compute			erad all property/atom eradius
compute			sp   all property/atom spin
compute			ch   all property/atom q
#END_FIX_SECTION

thermo          1000
thermo_modify	norm yes
thermo_style    custom step v_etotal_ev pe temp c_t_ion c_t_elup c_t_eldown v_accept v_mc_energy v_mc_step_energy c_ke_ion c_ke_eup c_ke_edown v_ebord v_mc_steppe_id

neigh_modify page 2097160
neigh_modify one  209716

# dump_modify     snap element I EU ED

run 			100000
  update every 1 steps, delay 10 steps, check yes
Step v_etotal_ev PotEng Temp c_t_ion c_t_elup c_t_eldown v_accept v_mc_energy v_mc_step_energy c_ke_ion c_ke_eup c_ke_edown v_ebord v_mc_steppe_id
0    541.81335    9722.3595        30000        30000            0            0            1            1            1    2772.1533            0            0            0            1
Averages over the last 51 of 101 rows, steps 50000 to 100000:
v_etotal_ev PotEng Temp c_t_ion c_t_elup c_t_eldown v_accept v_mc_energy v_mc_step_energy c_ke_ion c_ke_eup c_ke_edown v_ebord v_mc_steppe_id
465.947 7941.07 30343.8 30343.8 0 0 1 1 1 2803.93 0 0 0 1
Loop time of 21.4618 on 1 procs for 100000 steps with 32 atoms

unfix 			thermalization

timestep		0.001
compute			stream_e electrons reduce sum vx vy vz
compute 		stream_i ion reduce sum vx vy vz

variable		total_current equal sqrt((c_stream_i[1]-c_stream_e[1])^2+(c_stream_i[2]-c_stream_e[2])^2+(c_stream_i[3]-c_stream_e[3])^2)

variable        il equal 15.874010519682/3.0
region          inner block -5.291336839894 5.291336839894 -5.291336839894 5.291336839894 -5.291336839894 5.291336839894

group           inner_group dynamic all region inner every 1
dynamic group inner_group defined
compute         current_all inner_group ecurrent

fix             current_time all ave/time 1 10 10 c_stream_e[1] c_stream_e[2] c_stream_e[3] c_stream_i[1] c_stream_i[2] c_stream_i[3] v_total_current  file ./1e+21/current.dat
fix             current_time_vc all ave/time 1 10 10 c_current_all[1] c_current_all[2] c_current_all[3] file ./1e+21/current_inner.dat

fix				nve all nve
run	 			200000
Step v_etotal_ev PotEng Temp c_t_ion c_t_elup c_t_eldown v_accept v_mc_energy v_mc_step_energy c_ke_ion c_ke_eup c_ke_edown v_ebord v_mc_steppe_id
100000    486.57716    7996.9235    34887.814    34887.814            0            0            1            1            1    3223.8123            0            0            0            1
Averages over the last 101 of 201 rows, steps 200000 to 300000:
v_etotal_ev PotEng Temp c_t_ion c_t_elup c_t_eldown v_accept v_mc_energy v_mc_step_energy c_ke_ion c_ke_eup c_ke_edown v_ebord v_mc_steppe_id
485.505 8092.21 33589.1 33589.1 0 0 1 1 1 3103.81 0 0 0 1
Loop time of 39.2874 on 1 procs for 200000 steps with 32 atoms
